Circuit: * C:\users\tonix\My Documents\LuxFlux\hardwareDesign\BoostSimulation.asc

Direct Newton iteration for .op point succeeded.

Date: Thu May 20 21:46:02 2021
Total elapsed time: 6.043 seconds.

tnom = 27
temp = 27
method = modified trap
totiter = 3062380
traniter = 3062373
tranpoints = 1510201
accept = 1202574
rejected = 307627
matrix size = 5
fillins = 0
solver = Normal
Matrix Compiler1: 168 bytes object code size  0.1/0.2/[0.1]
Matrix Compiler2: off  [0.1]/0.2/0.2

